Version 4
SHEET 1 936 680
WIRE 176 -48 -144 -48
WIRE 448 -48 176 -48
WIRE -144 96 -144 -48
WIRE 448 96 448 -48
WIRE 176 144 176 32
WIRE 176 144 112 144
WIRE 384 144 176 144
WIRE 176 192 176 144
WIRE 448 304 448 272
WIRE 544 304 448 304
WIRE 448 320 448 304
WIRE -144 432 -144 176
WIRE 176 432 176 272
WIRE 176 432 -144 432
WIRE 448 432 448 384
WIRE 448 432 176 432
WIRE -144 448 -144 432
FLAG -144 448 0
FLAG 112 144 Vb
IOPIN 112 144 In
FLAG 544 304 VLED
IOPIN 544 304 Out
SYMBOL battery -144 80 R0
WINDOW 123 0 0 Left 2
WINDOW 3 24 38 Left 2
SYMATTR InstName V1
SYMATTR Value 9V
SYMATTR SpiceLine Rser=0
SYMBOL res 160 -64 R0
SYMATTR InstName R1
SYMATTR Value 12.1K
SYMBOL res 160 176 R0
SYMATTR InstName R2
SYMATTR Value {Rp}
SYMBOL npn 384 96 R0
SYMATTR InstName Q1
SYMATTR Value 2N2222
SYMBOL res 432 176 R0
SYMATTR InstName R3
SYMATTR Value 162
SYMBOL LED 432 320 R0
SYMATTR InstName D1
SYMATTR Value WP710A10QBC-2
TEXT 72 520 Left 2 !.lib LTSpice/WP710A10QBC.SP3
TEXT 40 632 Left 2 !.tran 0 1ms 0ms 10us startup
TEXT 48 600 Left 2 !.step param Rp 5k 20k 5k
