Version 4
SHEET 1 880 680
WIRE 176 112 48 112
WIRE 304 112 176 112
WIRE 48 176 48 112
WIRE 304 192 304 112
WIRE 240 240 176 240
WIRE 240 256 240 240
WIRE 48 288 48 256
WIRE 176 288 176 240
WIRE 176 288 48 288
WIRE 304 304 304 288
WIRE 320 304 304 304
WIRE 48 320 48 288
WIRE 304 320 304 304
WIRE 48 432 48 400
WIRE 176 432 48 432
WIRE 304 432 304 400
WIRE 304 432 176 432
FLAG 304 432 0
FLAG 176 192 0
FLAG 240 256 B
IOPIN 240 256 In
FLAG 320 304 E
IOPIN 320 304 In
SYMBOL npn 240 192 R0
SYMATTR InstName Q1
SYMATTR Value 2N2222
SYMBOL voltage 176 336 R0
WINDOW 3 24 96 Invisible 2
SYMATTR Value SINE(4 4 100 0 0 0 4)
SYMATTR InstName V1
SYMBOL res 288 304 R0
SYMATTR InstName R1
SYMATTR Value 1K
SYMBOL voltage 176 96 R0
SYMATTR InstName V2
SYMATTR Value 9V
SYMBOL res 32 160 R0
SYMATTR InstName R2
SYMATTR Value 1
SYMBOL res 32 304 R0
SYMATTR InstName R3
SYMATTR Value 1
SYMBOL cap -32 256 R0
SYMATTR InstName C1
TEXT 64 536 Left 2 !.tran 0 40ms 1ms
